# generated using pymatgen
data_BaTiO3
_symmetry_space_group_name_H-M   'P 1'
_cell_length_a   5.79788156
_cell_length_b   5.79788156
_cell_length_c   14.14208100
_cell_angle_alpha   90.00000000
_cell_angle_beta   90.00000000
_cell_angle_gamma   119.51118447
_symmetry_Int_Tables_number   1
_chemical_formula_structural   BaTiO3
_chemical_formula_sum   'Ba6 Ti6 O18'
_cell_volume   413.71455372
_cell_formula_units_Z   6
loop_
 _symmetry_equiv_pos_site_id
 _symmetry_equiv_pos_as_xyz
  1  'x, y, z'
loop_
 _atom_site_type_symbol
 _atom_site_label
 _atom_site_symmetry_multiplicity
 _atom_site_fract_x
 _atom_site_fract_y
 _atom_site_fract_z
 _atom_site_occupancy
  Ba  Ba0  1  0.34899600  0.68164700  0.40384400  1
  Ba  Ba1  1  0.68164700  0.34899600  0.59615600  1
  Ba  Ba2  1  0.65100400  0.31835300  0.90384400  1
  Ba  Ba3  1  0.99956800  0.00043200  0.25000000  1
  Ba  Ba4  1  0.00043200  0.99956800  0.75000000  1
  Ba  Ba5  1  0.31835300  0.65100400  0.09615600  1
  Ti  Ti6  1  0.35809500  0.69439700  0.65422900  1
  Ti  Ti7  1  0.69439700  0.35809500  0.34577100  1
  Ti  Ti8  1  0.97064800  0.97064800  0.00000000  1
  Ti  Ti9  1  0.30560300  0.64190500  0.84577100  1
  Ti  Ti10  1  0.02935200  0.02935200  0.50000000  1
  Ti  Ti11  1  0.64190500  0.30560300  0.15422900  1
  O  O12  1  0.16607600  0.83572600  0.91970600  1
  O  O13  1  0.83660300  0.67376500  0.08068500  1
  O  O14  1  0.51873800  0.03164000  0.24617500  1
  O  O15  1  0.83259600  0.66467300  0.41915700  1
  O  O16  1  0.83572600  0.16607600  0.08029400  1
  O  O17  1  0.16339700  0.32623500  0.58068500  1
  O  O18  1  0.66467300  0.83259600  0.58084300  1
  O  O19  1  0.96836000  0.48126200  0.25382500  1
  O  O20  1  0.47983100  0.52016900  0.75000000  1
  O  O21  1  0.16427400  0.83392400  0.58029400  1
  O  O22  1  0.33532700  0.16740400  0.08084300  1
  O  O23  1  0.52016900  0.47983100  0.25000000  1
  O  O24  1  0.67376500  0.83660300  0.91931500  1
  O  O25  1  0.83392400  0.16427400  0.41970600  1
  O  O26  1  0.32623500  0.16339700  0.41931500  1
  O  O27  1  0.48126200  0.96836000  0.74617500  1
  O  O28  1  0.03164000  0.51873800  0.75382500  1
  O  O29  1  0.16740400  0.33532700  0.91915700  1
